%nprocshared=28
%mem=50GB
%chk=000006.chk
#p CAM-B3LYP/aug-cc-pVDZ IOp(9/40=4) TD(nstates=20) symm=veryloose

000006

  0  1
C        -1.38444036730561    0.01019679089471   -0.13079391181970
C        -2.82409614556039   -0.09962648530716   -0.28580637271570
C        -3.69792290176199    0.91602394882246   -0.28177222666420
C        -5.13576398138557    0.80734642191378   -0.45367548569816
C        -5.82821069166876   -0.40051778037415   -0.33936199048796
C        -7.19678343205942   -0.45006444865476   -0.51647966212578
C        -7.90819472217610    0.70159275090457   -0.81262874058268
C        -7.23832040103210    1.90905896630381   -0.92208115516714
C        -5.87064534814777    1.96147494155972   -0.73919183770800
C        -0.75480745456348    1.16047485346667    0.35073711852174
C         0.61939570273568    1.21429623044486    0.47533964372002
C         1.39924617119757    0.12461100629041    0.12242531287790
C         0.79063549474023   -1.02661999016601   -0.34975702724062
C        -0.58381389713202   -1.08439728748689   -0.46910260855068
H        -3.18173277749209   -1.10753620439815   -0.45252803431832
H        -3.33364540764352    1.93005094799882   -0.17860384177111
H        -5.29369913272324   -1.30576334555325   -0.09456573217090
H        -7.71546941230924   -1.39318721849838   -0.42051826470313
H        -8.97825062783002    0.65849646879867   -0.95216173449947
H        -7.78609104381322    2.81251628001600   -1.14840225825891
H        -5.35427579321885    2.90744222175248   -0.82641969825576
H        -1.34624749598204    2.01418783496350    0.64481776735823
H         1.08821021611814    2.11155421956519    0.85331491018698
H         2.47382305808025    0.17115484015643    0.21971992106329
H         1.39106417726291   -1.88235879041635   -0.62307582083297
H        -1.05213378632996   -1.98616717299667   -0.83867827015659

